Circuit: *** SPICE deck for cell cd_layout{lay} from library cd_amplifier

Ignoring BSIM parameter XL
Ignoring BSIM parameter XW
Direct Newton iteration for .op point succeeded.

Date: Sun Nov 25 18:43:17 2018
Total elapsed time: 0.095 seconds.

tnom = 27
temp = 27
method = trap
totiter = 13
traniter = 0
tranpoints = 0
accept = 0
rejected = 0
matrix size = 40
fillins = 0
solver = Normal
Matrix Compiler1:     109 opcodes
Matrix Compiler2: 2.81 KB object code size

